data_image0
_chemical_formula_structural       Sc6Al2
_chemical_formula_sum              "Sc6 Al2"
_cell_length_a       4.477952069999999
_cell_length_b       6.332780549050673
_cell_length_c       6.332780549050674
_cell_angle_alpha    90.0
_cell_angle_beta     90.00000000000001
_cell_angle_gamma    90.0

_space_group_name_H-M_alt    "P 1"
_space_group_IT_number       1

loop_
  _space_group_symop_operation_xyz
  'x, y, z'

loop_
  _atom_site_type_symbol
  _atom_site_label
  _atom_site_symmetry_multiplicity
  _atom_site_fract_x
  _atom_site_fract_y
  _atom_site_fract_z
  _atom_site_occupancy
  Sc  Sc1       1.0  0.5  0.25  0.12499999999999996  1.0000
  Sc  Sc2       1.0  0.49999999999999994  0.7500000000000002  0.625  1.0000
  Sc  Sc3       1.0  0.5  0.75  0.12500000000000017  1.0000
  Sc  Sc4       1.0  0.49999999999999994  0.25  0.6249999999999999  1.0000
  Sc  Sc5       1.0  2.2020694194841283e-32  0.5000000000000002  0.8750000000000001  1.0000
  Sc  Sc6       1.0  5.505173548710321e-33  4.9586195085163423e-17  0.37499999999999994  1.0000
  Al  Al1       1.0  0.0  0.5  0.375  1.0000
  Al  Al2       1.0  0.0  9.917239017032685e-17  0.875  1.0000
