data_image0
_chemical_formula_structural       Sc24Al8Sc24Al8
_chemical_formula_sum              "Sc48 Al16"
_cell_length_a       8.955904139999998
_cell_length_b       12.665561098101346
_cell_length_c       37.99668329430404
_cell_angle_alpha    90.0
_cell_angle_beta     90.00000000000001
_cell_angle_gamma    90.0

_space_group_name_H-M_alt    "P 1"
_space_group_IT_number       1

loop_
  _space_group_symop_operation_xyz
  'x, y, z'

loop_
  _atom_site_type_symbol
  _atom_site_label
  _atom_site_symmetry_multiplicity
  _atom_site_fract_x
  _atom_site_fract_y
  _atom_site_fract_z
  _atom_site_occupancy
  Sc  Sc1       1.0  0.25  0.125  0.020833333333333322  1.0000
  Sc  Sc2       1.0  0.25  0.6250000000000001  0.020833333333333294  1.0000
  Sc  Sc3       1.0  0.75  0.125  0.020833333333333322  1.0000
  Sc  Sc4       1.0  0.75  0.6250000000000001  0.020833333333333294  1.0000
  Sc  Sc5       1.0  0.24999999999999997  0.375  0.10416666666666663  1.0000
  Sc  Sc6       1.0  0.24999999999999997  0.875  0.10416666666666666  1.0000
  Sc  Sc7       1.0  0.7499999999999999  0.375  0.10416666666666663  1.0000
  Sc  Sc8       1.0  0.7499999999999999  0.875  0.10416666666666666  1.0000
  Sc  Sc9       1.0  0.25  0.375  0.020833333333333343  1.0000
  Sc  Sc10      1.0  0.25  0.875  0.02083333333333336  1.0000
  Sc  Sc11      1.0  0.75  0.375  0.020833333333333343  1.0000
  Sc  Sc12      1.0  0.75  0.875  0.02083333333333336  1.0000
  Sc  Sc13      1.0  0.24999999999999997  0.125  0.10416666666666664  1.0000
  Sc  Sc14      1.0  0.24999999999999997  0.6250000000000001  0.10416666666666662  1.0000
  Sc  Sc15      1.0  0.7499999999999999  0.125  0.10416666666666664  1.0000
  Sc  Sc16      1.0  0.7499999999999999  0.6250000000000001  0.10416666666666662  1.0000
  Sc  Sc17      1.0  0.0  0.25  0.14583333333333331  1.0000
  Sc  Sc18      1.0  0.0  0.75  0.14583333333333331  1.0000
  Sc  Sc19      1.0  0.5  0.25  0.14583333333333331  1.0000
  Sc  Sc20      1.0  0.5  0.75  0.14583333333333331  1.0000
  Sc  Sc21      1.0  2.7525867743551604e-33  0.0  0.06249999999999998  1.0000
  Sc  Sc22      1.0  2.7525867743551604e-33  0.5  0.06249999999999997  1.0000
  Sc  Sc23      1.0  0.5  0.0  0.06249999999999998  1.0000
  Sc  Sc24      1.0  0.5  0.5  0.06249999999999997  1.0000
  Al  Al1       1.0  0.0  0.25  0.06249999999999999  1.0000
  Al  Al2       1.0  2.7525867743551604e-33  0.75  0.062499999999999965  1.0000
  Al  Al3       1.0  0.5  0.25  0.06249999999999999  1.0000
  Al  Al4       1.0  0.5  0.75  0.062499999999999965  1.0000
  Al  Al5       1.0  1.1010347097420641e-32  1.4875858525549026e-16  0.14583333333333334  1.0000
  Al  Al6       1.0  0.0  0.5  0.1458333333333333  1.0000
  Al  Al7       1.0  0.5  1.4875858525549026e-16  0.14583333333333334  1.0000
  Al  Al8       1.0  0.5  0.5  0.1458333333333333  1.0000
  Sc  Sc25      1.0  0.25000000000000006  0.125  0.18749999999999994  1.0000
  Sc  Sc26      1.0  0.25000000000000006  0.6250000000000001  0.18749999999999994  1.0000
  Sc  Sc27      1.0  0.75  0.125  0.18749999999999994  1.0000
  Sc  Sc28      1.0  0.75  0.6250000000000001  0.18749999999999994  1.0000
  Sc  Sc29      1.0  0.24999999999999997  0.3750000000000001  0.2708333333333333  1.0000
  Sc  Sc30      1.0  0.24999999999999997  0.8749999999999999  0.2708333333333332  1.0000
  Sc  Sc31      1.0  0.75  0.3750000000000001  0.2708333333333333  1.0000
  Sc  Sc32      1.0  0.75  0.8749999999999999  0.2708333333333332  1.0000
  Sc  Sc33      1.0  0.25000000000000006  0.375  0.18749999999999997  1.0000
  Sc  Sc34      1.0  0.25000000000000006  0.8750000000000002  0.18750000000000003  1.0000
  Sc  Sc35      1.0  0.75  0.375  0.18749999999999997  1.0000
  Sc  Sc36      1.0  0.75  0.8750000000000002  0.18750000000000003  1.0000
  Sc  Sc37      1.0  0.24999999999999997  0.12500000000000006  0.2708333333333333  1.0000
  Sc  Sc38      1.0  0.24999999999999997  0.6250000000000001  0.27083333333333326  1.0000
  Sc  Sc39      1.0  0.75  0.12500000000000006  0.2708333333333333  1.0000
  Sc  Sc40      1.0  0.75  0.6250000000000001  0.27083333333333326  1.0000
  Sc  Sc41      1.0  0.0  0.2500000000000001  0.3125  1.0000
  Sc  Sc42      1.0  0.0  0.7500000000000001  0.3125  1.0000
  Sc  Sc43      1.0  0.5000000000000001  0.2500000000000001  0.3125  1.0000
  Sc  Sc44      1.0  0.5000000000000001  0.7500000000000001  0.3125  1.0000
  Sc  Sc45      1.0  0.0  0.0  0.22916666666666663  1.0000
  Sc  Sc46      1.0  0.0  0.5  0.2291666666666666  1.0000
  Sc  Sc47      1.0  0.5  0.0  0.22916666666666663  1.0000
  Sc  Sc48      1.0  0.5  0.5  0.2291666666666666  1.0000
  Al  Al9       1.0  0.0  0.24999999999999997  0.22916666666666663  1.0000
  Al  Al10      1.0  1.1010347097420641e-32  0.7500000000000001  0.22916666666666666  1.0000
  Al  Al11      1.0  0.5  0.24999999999999997  0.22916666666666663  1.0000
  Al  Al12      1.0  0.5  0.7500000000000001  0.22916666666666666  1.0000
  Al  Al13      1.0  0.0  0.0  0.3125  1.0000
  Al  Al14      1.0  0.0  0.5  0.31249999999999994  1.0000
  Al  Al15      1.0  0.5000000000000001  0.0  0.3125  1.0000
  Al  Al16      1.0  0.5000000000000001  0.5  0.31249999999999994  1.0000
