data_image0
_chemical_formula_structural       Sc6Al2Sc6Al2
_chemical_formula_sum              "Sc12 Al4"
_cell_length_a       4.477952069999999
_cell_length_b       6.332780549050673
_cell_length_c       11.082365960838683
_cell_angle_alpha    90.00000000000001
_cell_angle_beta     90.00000000000001
_cell_angle_gamma    90.0

_space_group_name_H-M_alt    "P 1"
_space_group_IT_number       1

loop_
  _space_group_symop_operation_xyz
  'x, y, z'

loop_
  _atom_site_type_symbol
  _atom_site_label
  _atom_site_symmetry_multiplicity
  _atom_site_fract_x
  _atom_site_fract_y
  _atom_site_fract_z
  _atom_site_occupancy
  Sc  Sc1       1.0  0.5  0.25  0.0  1.0000
  Sc  Sc2       1.0  0.49999999999999994  0.75  0.2857142857142856  1.0000
  Sc  Sc3       1.0  0.5  0.75  1.7000981172056027e-16  1.0000
  Sc  Sc4       1.0  0.49999999999999994  0.25  0.2857142857142856  1.0000
  Sc  Sc5       1.0  1.1010347097420641e-32  0.5000000000000001  0.4285714285714287  1.0000
  Sc  Sc6       1.0  0.0  0.0  0.14285714285714288  1.0000
  Al  Al1       1.0  0.0  0.5  0.14285714285714288  1.0000
  Al  Al2       1.0  1.1010347097420641e-32  9.917239017032685e-17  0.4285714285714285  1.0000
  Sc  Sc7       1.0  0.5  0.25  0.5714285714285714  1.0000
  Sc  Sc8       1.0  0.49999999999999994  0.7500000000000002  0.8571428571428569  1.0000
  Sc  Sc9       1.0  0.5  0.75  0.5714285714285714  1.0000
  Sc  Sc10      1.0  0.49999999999999994  0.25000000000000033  0.8571428571428569  1.0000
  Sc  Sc11      1.0  0.0  0.49999999999999983  0.9999999999999997  1.0000
  Sc  Sc12      1.0  0.0  0.0  0.7142857142857141  1.0000
  Al  Al3       1.0  0.0  0.5  0.7142857142857141  1.0000
  Al  Al4       1.0  0.0  0.0  0.9999999999999998  1.0000
