data_image0
_chemical_formula_structural       Al20Rh8
_chemical_formula_sum              "Al20 Rh8"
_cell_length_a       8.3915912
_cell_length_b       8.39159118861398
_cell_length_c       8.34207976
_cell_angle_alpha    90.0
_cell_angle_beta     90.0
_cell_angle_gamma    119.99999996604363

_space_group_name_H-M_alt    "P 1"
_space_group_IT_number       1

loop_
  _space_group_symop_operation_xyz
  'x, y, z'

loop_
  _atom_site_type_symbol
  _atom_site_label
  _atom_site_symmetry_multiplicity
  _atom_site_fract_x
  _atom_site_fract_y
  _atom_site_fract_z
  _atom_site_occupancy
  Al  Al1       1.0  0.0  0.0  0.0  1.0000
  Al  Al2       1.0  0.0  0.0  0.5  1.0000
  Al  Al3       1.0  0.47119068  0.94238136  0.25  1.0000
  Al  Al4       1.0  0.52880932  0.47119068  0.75  1.0000
  Al  Al5       1.0  0.94238136  0.47119068  0.75  1.0000
  Al  Al6       1.0  0.05761863999999999  0.52880932  0.25  1.0000
  Al  Al7       1.0  0.47119068  0.52880932  0.25  1.0000
  Al  Al8       1.0  0.52880932  0.05761864  0.75  1.0000
  Al  Al9       1.0  0.19281171  0.38562342  0.94199727  1.0000
  Al  Al10      1.0  0.80718829  0.19281171  0.44199727  1.0000
  Al  Al11      1.0  0.38562342000000005  0.19281171  0.44199727  1.0000
  Al  Al12      1.0  0.61437658  0.80718829  0.94199727  1.0000
  Al  Al13      1.0  0.19281171  0.80718829  0.94199727  1.0000
  Al  Al14      1.0  0.80718829  0.61437658  0.05800273  1.0000
  Al  Al15      1.0  0.80718829  0.19281171  0.05800273  1.0000
  Al  Al16      1.0  0.80718829  0.61437658  0.44199727  1.0000
  Al  Al17      1.0  0.38562342000000005  0.19281171  0.05800273  1.0000
  Al  Al18      1.0  0.61437658  0.80718829  0.55800273  1.0000
  Al  Al19      1.0  0.19281171  0.38562342  0.55800273  1.0000
  Al  Al20      1.0  0.19281171  0.80718829  0.55800273  1.0000
  Rh  Rh1       1.0  0.33333333  0.66666667  0.75  1.0000
  Rh  Rh2       1.0  0.66666667  0.33333333  0.25  1.0000
  Rh  Rh3       1.0  0.12975045  0.2595009  0.25  1.0000
  Rh  Rh4       1.0  0.87024955  0.12975045  0.75  1.0000
  Rh  Rh5       1.0  0.2595009  0.12975045  0.75  1.0000
  Rh  Rh6       1.0  0.7404991  0.87024955  0.25  1.0000
  Rh  Rh7       1.0  0.12975045000000002  0.87024955  0.25  1.0000
  Rh  Rh8       1.0  0.87024955  0.7404991  0.75  1.0000
