data_image0
_chemical_formula_structural       Al60Rh24
_chemical_formula_sum              "Al60 Rh24"
_cell_length_a       11.832543999266274
_cell_length_b       16.75848152546386
_cell_length_c       31.3852629551358
_cell_angle_alpha    93.92882041723931
_cell_angle_beta     90.12782500710499
_cell_angle_gamma    100.47103543449688

_space_group_name_H-M_alt    "P 1"
_space_group_IT_number       1

loop_
  _space_group_symop_operation_xyz
  'x, y, z'

loop_
  _atom_site_type_symbol
  _atom_site_label
  _atom_site_symmetry_multiplicity
  _atom_site_fract_x
  _atom_site_fract_y
  _atom_site_fract_z
  _atom_site_occupancy
  Al  Al1       1.0  0.5983923904186358  0.0  0.4016076095813642  1.0000
  Al  Al2       1.0  0.7650590570853023  0.6666666666666669  0.5682742762480308  1.0000
  Al  Al3       1.0  0.18172572375196908  0.33333333333333337  0.4849409429146976  1.0000
  Al  Al4       1.0  0.056725723751969194  0.8333333333333334  0.6099409429146976  1.0000
  Al  Al5       1.0  0.4733923904186357  0.5  0.5266076095813641  1.0000
  Al  Al6       1.0  0.8900590570853022  0.1666666666666666  0.44327427624803084  1.0000
  Al  Al7       1.0  0.5166861737519691  0.7596031083333334  0.47371071791469754  1.0000
  Al  Al8       1.0  0.9333528404186356  0.4262697750000002  0.3903773845813643  1.0000
  Al  Al9       1.0  0.10001950708530209  0.09293644166666674  0.557044051248031  1.0000
  Al  Al10      1.0  0.019086950835302305  0.7692062166666669  0.46170683249803074  1.0000
  Al  Al11      1.0  0.435753617501969  0.43587288333333357  0.37837349916469754  1.0000
  Al  Al12      1.0  0.6024202841686356  0.10253955000000037  0.5450401658313642  1.0000
  Al  Al13      1.0  0.950158280001969  0.9070635583333334  0.3927781616646976  1.0000
  Al  Al14      1.0  0.11682494666863577  0.573730225  0.5594448283313643  1.0000
  Al  Al15      1.0  0.5334916133353024  0.24039689166666667  0.47611149499803096  1.0000
  Al  Al16      1.0  0.4132931675019692  0.7596031083333334  0.5771037241646975  1.0000
  Al  Al17      1.0  0.8299598341686354  0.4262697750000002  0.4937703908313642  1.0000
  Al  Al18      1.0  0.2466265008353022  0.09293644166666673  0.4104370574980309  1.0000
  Al  Al19      1.0  0.344364496668636  0.8974604499999997  0.5081750533313643  1.0000
  Al  Al20      1.0  0.7610311633353023  0.5641271166666666  0.424841719998031  1.0000
  Al  Al21      1.0  0.9276978300019689  0.23079378333333325  0.5915083866646976  1.0000
  Al  Al22      1.0  0.8467652737519692  0.9070635583333335  0.4961711679146974  1.0000
  Al  Al23      1.0  0.26343194041863605  0.573730225  0.4128378345813641  1.0000
  Al  Al24      1.0  0.4300986070853028  0.24039689166666667  0.5795045012480307  1.0000
  Al  Al25      1.0  0.9274351195853021  0.6217303416666666  0.5088372687480309  1.0000
  Al  Al26      1.0  0.3441017862519688  0.2883970083333336  0.4255039354146976  1.0000
  Al  Al27      1.0  0.5107684529186349  0.9550636750000003  0.5921706020813642  1.0000
  Al  Al28      1.0  0.03636747750196886  0.05745977333333367  0.46417547916469754  1.0000
  Al  Al29      1.0  0.4530341441686356  0.7241264400000004  0.38084214583136433  1.0000
  Al  Al30      1.0  0.6197008108353023  0.3907931066666669  0.5475088124980306  1.0000
  Al  Al31      1.0  0.1066282916686356  0.9169381449999998  0.5344362933313643  1.0000
  Al  Al32      1.0  0.5232949583353024  0.5836048116666666  0.45110295999803096  1.0000
  Al  Al33      1.0  0.6899616250019692  0.25027147833333335  0.6177696266646976  1.0000
  Al  Al34      1.0  0.03282634083530206  0.6217303416666669  0.4034460474980308  1.0000
  Al  Al35      1.0  0.1994930075019689  0.2883970083333336  0.5701127141646974  1.0000
  Al  Al36      1.0  0.6161596741686355  0.9550636750000003  0.486779380831364  1.0000
  Al  Al37      1.0  0.10308715500196934  0.4812087133333332  0.47370686166469744  1.0000
  Al  Al38      1.0  0.5197538216686357  0.14787537999999986  0.3903735283313643  1.0000
  Al  Al39      1.0  0.6864204883353026  0.8145420466666665  0.5570401949980308  1.0000
  Al  Al40      1.0  0.43601632791863604  0.044936324999999895  0.4610446170813641  1.0000
  Al  Al41      1.0  0.8526829945853024  0.7116029916666667  0.37771128374803076  1.0000
  Al  Al42      1.0  0.019349661251969057  0.3782696583333334  0.5443779504146975  1.0000
  Al  Al43      1.0  0.26036429250196885  0.18545795333333356  0.49617502416469755  1.0000
  Al  Al44      1.0  0.6770309591686353  0.8521246200000001  0.41284169083136407  1.0000
  Al  Al45      1.0  0.8436976258353023  0.518791286666667  0.5795083574980309  1.0000
  Al  Al46      1.0  0.21201951291863616  0.9169381449999998  0.42904507208136394  1.0000
  Al  Al47      1.0  0.37868617958530243  0.5836048116666666  0.5957117387480309  1.0000
  Al  Al48      1.0  0.7953528462519696  0.25027147833333335  0.5123784054146974  1.0000
  Al  Al49      1.0  0.3306251066686357  0.044936324999999895  0.5664358383313645  1.0000
  Al  Al50      1.0  0.7472917733353023  0.7116029916666667  0.48310250499803103  1.0000
  Al  Al51      1.0  0.16395844000196894  0.3782696583333334  0.3997691716646977  1.0000
  Al  Al52      1.0  0.2568231558353026  0.7497285216666668  0.4354455924980306  1.0000
  Al  Al53      1.0  0.4234898225019689  0.41639518833333333  0.6021122591646976  1.0000
  Al  Al54      1.0  0.8401564891686356  0.08306185500000005  0.5187789258313641  1.0000
  Al  Al55      1.0  0.1514319345853019  0.7497285216666668  0.540836813748031  1.0000
  Al  Al56      1.0  0.5680986012519688  0.4163951883333333  0.4575034804146977  1.0000
  Al  Al57      1.0  0.9847652679186354  0.08306185500000005  0.3741701470813643  1.0000
  Al  Al58      1.0  0.3270839700019691  0.609206893333333  0.5057064066646977  1.0000
  Al  Al59      1.0  0.7437506366686358  0.2758735599999999  0.4223730733313642  1.0000
  Al  Al60      1.0  0.9104173033353024  0.9425402266666665  0.5890397399980309  1.0000
  Rh  Rh1       1.0  0.13311461264085792  0.6388888888888891  0.47799649847025316  1.0000
  Rh  Rh2       1.0  0.5497812793075246  0.3055555555555557  0.39466316513691974  1.0000
  Rh  Rh3       1.0  0.7164479459741918  0.9722222222222224  0.5613298318035864  1.0000
  Rh  Rh4       1.0  0.23033683486308015  0.02777777777777772  0.4918853873591419  1.0000
  Rh  Rh5       1.0  0.6470035015297466  0.6944444444444448  0.40855205402580874  1.0000
  Rh  Rh6       1.0  0.8136701681964134  0.36111111111111105  0.5752187206924753  1.0000
  Rh  Rh7       1.0  0.28905935375196873  0.8734165183333333  0.5875241279146977  1.0000
  Rh  Rh8       1.0  0.7057260204186355  0.5400831850000004  0.5041907945813643  1.0000
  Rh  Rh9       1.0  0.1223926870853023  0.2067498516666669  0.4208574612480307  1.0000
  Rh  Rh10      1.0  0.8199134833353021  0.9968330366666672  0.4332534799980308  1.0000
  Rh  Rh11      1.0  0.9865801500019687  0.663499703333334  0.5999201466646975  1.0000
  Rh  Rh12      1.0  0.40324681666863543  0.33016637000000026  0.5165868133313641  1.0000
  Rh  Rh13      1.0  0.9217049275019688  0.7932501483333332  0.5350449241646976  1.0000
  Rh  Rh14      1.0  0.33837159416863577  0.45991681500000015  0.45171159083136425  1.0000
  Rh  Rh15      1.0  0.5050382608353025  0.1265834816666667  0.618378257498031  1.0000
  Rh  Rh16      1.0  0.44174652000196873  0.8734165183333333  0.4348369616646975  1.0000
  Rh  Rh17      1.0  0.6084131866686356  0.5400831850000004  0.6015036283313642  1.0000
  Rh  Rh18      1.0  0.025079853335302178  0.20674985166666682  0.5181702949980307  1.0000
  Rh  Rh19      1.0  0.5435379641686362  0.66983363  0.5366284058313642  1.0000
  Rh  Rh20      1.0  0.9602046308353024  0.3365002966666664  0.45329507249803086  1.0000
  Rh  Rh21      1.0  0.12687129750196935  0.0031669633333332213  0.6199617391646977  1.0000
  Rh  Rh22      1.0  0.07439209375196922  0.7932501483333332  0.38235775791469734  1.0000
  Rh  Rh23      1.0  0.24105876041863608  0.45991681500000015  0.5490244245813639  1.0000
  Rh  Rh24      1.0  0.6577254270853027  0.12658348166666658  0.46569109124803076  1.0000
